!-Generator IDFEditor 1.51
!-Option OriginalOrderTop UseSpecialFormat

!-NOTE: All comments with '!-' are ignored by the IDFEditor and are generated automatically.
!-      Use '!' comments if they need to be retained when using the IDFEditor.

WindowMaterial:SimpleGlazingSystem,
    SemiTransparentPV,       !- Name
    1.9,                     !- U-Factor {W/m2-K}
    0.202,                   !- Solar Heat Gain Coefficient
    0.225;                   !- Visible Transmittance

Construction,
    SolarRoof,               !- Name
    SemiTransparentPV;       !- Outside Layer

Generator:Photovoltaic,
    PVSemiTransRoof1,        !- Name
    P4NRF-Win,               !- Surface Name
    PhotovoltaicPerformance:Simple,  !- Photovoltaic Performance Object Type
    PV_SemiTransRoof_Perf,   !- Module Performance Name
    Decoupled,               !- Heat Transfer Integration Mode
    1,                       !- Number of Series Strings in Parallel {dimensionless}
    1;                       !- Number of Modules in Series {dimensionless}

Generator:Photovoltaic,
    PVSemiTransRoof2,        !- Name
    P3NRF-Win,               !- Surface Name
    PhotovoltaicPerformance:Simple,  !- Photovoltaic Performance Object Type
    PV_SemiTransRoof_Perf,   !- Module Performance Name
    Decoupled,               !- Heat Transfer Integration Mode
    1,                       !- Number of Series Strings in Parallel {dimensionless}
    1;                       !- Number of Modules in Series {dimensionless}

Generator:Photovoltaic,
    PVSemiTransRoof3,        !- Name
    P2NRF-Win,               !- Surface Name
    PhotovoltaicPerformance:Simple,  !- Photovoltaic Performance Object Type
    PV_SemiTransRoof_Perf,   !- Module Performance Name
    Decoupled,               !- Heat Transfer Integration Mode
    1,                       !- Number of Series Strings in Parallel {dimensionless}
    1;                       !- Number of Modules in Series {dimensionless}

Generator:Photovoltaic,
    PVSemiTransRoof4,        !- Name
    P4SRF-Win,               !- Surface Name
    PhotovoltaicPerformance:Simple,  !- Photovoltaic Performance Object Type
    PV_SemiTransRoof_Perf,   !- Module Performance Name
    Decoupled,               !- Heat Transfer Integration Mode
    1,                       !- Number of Series Strings in Parallel {dimensionless}
    1;                       !- Number of Modules in Series {dimensionless}

Generator:Photovoltaic,
    PVSemiTransRoof5,        !- Name
    P3SRF-Win,               !- Surface Name
    PhotovoltaicPerformance:Simple,  !- Photovoltaic Performance Object Type
    PV_SemiTransRoof_Perf,   !- Module Performance Name
    Decoupled,               !- Heat Transfer Integration Mode
    1,                       !- Number of Series Strings in Parallel {dimensionless}
    1;                       !- Number of Modules in Series {dimensionless}

Generator:Photovoltaic,
    PVSemiTransRoof6,        !- Name
    P2SRF-Win,               !- Surface Name
    PhotovoltaicPerformance:Simple,  !- Photovoltaic Performance Object Type
    PV_SemiTransRoof_Perf,   !- Module Performance Name
    Decoupled,               !- Heat Transfer Integration Mode
    1,                       !- Number of Series Strings in Parallel {dimensionless}
    1;                       !- Number of Modules in Series {dimensionless}

Generator:Photovoltaic,
    PVSemiTransRoof7,        !- Name
    P1SRF-Win,               !- Surface Name
    PhotovoltaicPerformance:Simple,  !- Photovoltaic Performance Object Type
    PV_SemiTransRoof_Perf,   !- Module Performance Name
    Decoupled,               !- Heat Transfer Integration Mode
    1,                       !- Number of Series Strings in Parallel {dimensionless}
    1;                       !- Number of Modules in Series {dimensionless}

Generator:Photovoltaic,
    PVSemiTransRoof8,        !- Name
    P1NRF-Win,               !- Surface Name
    PhotovoltaicPerformance:Simple,  !- Photovoltaic Performance Object Type
    PV_SemiTransRoof_Perf,   !- Module Performance Name
    Decoupled,               !- Heat Transfer Integration Mode
    1,                       !- Number of Series Strings in Parallel {dimensionless}
    1;                       !- Number of Modules in Series {dimensionless}

PhotovoltaicPerformance:Simple,
    PV_SemiTransRoof_Perf,   !- Name
    0.9,                     !- Fraction of Surface Area with Active Solar Cells {dimensionless}
    Fixed,                   !- Conversion Efficiency Input Mode
    0.1;                     !- Value for Cell Efficiency if Fixed

ElectricLoadCenter:Generators,
    G1,                      !- Name
    PVSemiTransRoof1,        !- Generator 1 Name
    Generator:Photovoltaic,  !- Generator 1 Object Type
    ,                        !- Generator 1 Rated Electric Power Output {W}
    ALWAYSON,                !- Generator 1 Availability Schedule Name
    ;                        !- Generator 1 Rated Thermal to Electrical Power Ratio

ElectricLoadCenter:Generators,
    G2,                      !- Name
    PVSemiTransRoof2,        !- Generator 1 Name
    Generator:Photovoltaic,  !- Generator 1 Object Type
    ,                        !- Generator 1 Rated Electric Power Output {W}
    ALWAYSON,                !- Generator 1 Availability Schedule Name
    ;                        !- Generator 1 Rated Thermal to Electrical Power Ratio

ElectricLoadCenter:Generators,
    G3,                      !- Name
    PVSemiTransRoof3,        !- Generator 1 Name
    Generator:Photovoltaic,  !- Generator 1 Object Type
    ,                        !- Generator 1 Rated Electric Power Output {W}
    ALWAYSON,                !- Generator 1 Availability Schedule Name
    ;                        !- Generator 1 Rated Thermal to Electrical Power Ratio

ElectricLoadCenter:Generators,
    G4,                      !- Name
    PVSemiTransRoof4,        !- Generator 1 Name
    Generator:Photovoltaic,  !- Generator 1 Object Type
    ,                        !- Generator 1 Rated Electric Power Output {W}
    ALWAYSON,                !- Generator 1 Availability Schedule Name
    ;                        !- Generator 1 Rated Thermal to Electrical Power Ratio

ElectricLoadCenter:Generators,
    G5,                      !- Name
    PVSemiTransRoof5,        !- Generator 1 Name
    Generator:Photovoltaic,  !- Generator 1 Object Type
    ,                        !- Generator 1 Rated Electric Power Output {W}
    ALWAYSON,                !- Generator 1 Availability Schedule Name
    ;                        !- Generator 1 Rated Thermal to Electrical Power Ratio

ElectricLoadCenter:Generators,
    G6,                      !- Name
    PVSemiTransRoof6,        !- Generator 1 Name
    Generator:Photovoltaic,  !- Generator 1 Object Type
    ,                        !- Generator 1 Rated Electric Power Output {W}
    ALWAYSON,                !- Generator 1 Availability Schedule Name
    ;                        !- Generator 1 Rated Thermal to Electrical Power Ratio

ElectricLoadCenter:Generators,
    G7,                      !- Name
    PVSemiTransRoof7,        !- Generator 1 Name
    Generator:Photovoltaic,  !- Generator 1 Object Type
    ,                        !- Generator 1 Rated Electric Power Output {W}
    ALWAYSON,                !- Generator 1 Availability Schedule Name
    ;                        !- Generator 1 Rated Thermal to Electrical Power Ratio

ElectricLoadCenter:Generators,
    G8,                      !- Name
    PVSemiTransRoof8,        !- Generator 1 Name
    Generator:Photovoltaic,  !- Generator 1 Object Type
    ,                        !- Generator 1 Rated Electric Power Output {W}
    ALWAYSON,                !- Generator 1 Availability Schedule Name
    ;                        !- Generator 1 Rated Thermal to Electrical Power Ratio

ElectricLoadCenter:Distribution,
    D1,                      !- Name
    G1,                      !- Generator List Name
    TrackElectrical,         !- Generator Operation Scheme Type
    ,                        !- Generator Demand Limit Scheme Purchased Electric Demand Limit {W}
    ,                        !- Generator Track Schedule Name Scheme Schedule Name
    ,                        !- Generator Track Meter Scheme Meter Name
    AlternatingCurrent,      !- Electrical Buss Type
    ,                        !- Inverter Name
    ,                        !- Electrical Storage Object Name
    ,                        !- Transformer Object Name
    TrackFacilityElectricDemandStoreExcessOnSite,  !- Storage Operation Scheme
    ,                        !- Storage Control Track Meter Name
    ,                        !- Storage Converter Object Name
    1;                       !- Maximum Storage State of Charge Fraction

ElectricLoadCenter:Distribution,
    D2,                      !- Name
    G2,                      !- Generator List Name
    TrackElectrical,         !- Generator Operation Scheme Type
    ,                        !- Generator Demand Limit Scheme Purchased Electric Demand Limit {W}
    ,                        !- Generator Track Schedule Name Scheme Schedule Name
    ,                        !- Generator Track Meter Scheme Meter Name
    AlternatingCurrent,      !- Electrical Buss Type
    ,                        !- Inverter Name
    ,                        !- Electrical Storage Object Name
    ,                        !- Transformer Object Name
    TrackFacilityElectricDemandStoreExcessOnSite,  !- Storage Operation Scheme
    ,                        !- Storage Control Track Meter Name
    ,                        !- Storage Converter Object Name
    1;                       !- Maximum Storage State of Charge Fraction

ElectricLoadCenter:Distribution,
    D3,                      !- Name
    G3,                      !- Generator List Name
    TrackElectrical,         !- Generator Operation Scheme Type
    ,                        !- Generator Demand Limit Scheme Purchased Electric Demand Limit {W}
    ,                        !- Generator Track Schedule Name Scheme Schedule Name
    ,                        !- Generator Track Meter Scheme Meter Name
    AlternatingCurrent,      !- Electrical Buss Type
    ,                        !- Inverter Name
    ,                        !- Electrical Storage Object Name
    ,                        !- Transformer Object Name
    TrackFacilityElectricDemandStoreExcessOnSite,  !- Storage Operation Scheme
    ,                        !- Storage Control Track Meter Name
    ,                        !- Storage Converter Object Name
    1;                       !- Maximum Storage State of Charge Fraction

ElectricLoadCenter:Distribution,
    D4,                      !- Name
    G4,                      !- Generator List Name
    TrackElectrical,         !- Generator Operation Scheme Type
    ,                        !- Generator Demand Limit Scheme Purchased Electric Demand Limit {W}
    ,                        !- Generator Track Schedule Name Scheme Schedule Name
    ,                        !- Generator Track Meter Scheme Meter Name
    AlternatingCurrent,      !- Electrical Buss Type
    ,                        !- Inverter Name
    ,                        !- Electrical Storage Object Name
    ,                        !- Transformer Object Name
    TrackFacilityElectricDemandStoreExcessOnSite,  !- Storage Operation Scheme
    ,                        !- Storage Control Track Meter Name
    ,                        !- Storage Converter Object Name
    1;                       !- Maximum Storage State of Charge Fraction

ElectricLoadCenter:Distribution,
    D5,                      !- Name
    G5,                      !- Generator List Name
    TrackElectrical,         !- Generator Operation Scheme Type
    ,                        !- Generator Demand Limit Scheme Purchased Electric Demand Limit {W}
    ,                        !- Generator Track Schedule Name Scheme Schedule Name
    ,                        !- Generator Track Meter Scheme Meter Name
    AlternatingCurrent,      !- Electrical Buss Type
    ,                        !- Inverter Name
    ,                        !- Electrical Storage Object Name
    ,                        !- Transformer Object Name
    TrackFacilityElectricDemandStoreExcessOnSite,  !- Storage Operation Scheme
    ,                        !- Storage Control Track Meter Name
    ,                        !- Storage Converter Object Name
    1;                       !- Maximum Storage State of Charge Fraction

ElectricLoadCenter:Distribution,
    D6,                      !- Name
    G6,                      !- Generator List Name
    TrackElectrical,         !- Generator Operation Scheme Type
    ,                        !- Generator Demand Limit Scheme Purchased Electric Demand Limit {W}
    ,                        !- Generator Track Schedule Name Scheme Schedule Name
    ,                        !- Generator Track Meter Scheme Meter Name
    AlternatingCurrent,      !- Electrical Buss Type
    ,                        !- Inverter Name
    ,                        !- Electrical Storage Object Name
    ,                        !- Transformer Object Name
    TrackFacilityElectricDemandStoreExcessOnSite,  !- Storage Operation Scheme
    ,                        !- Storage Control Track Meter Name
    ,                        !- Storage Converter Object Name
    1;                       !- Maximum Storage State of Charge Fraction

ElectricLoadCenter:Distribution,
    D7,                      !- Name
    G7,                      !- Generator List Name
    TrackElectrical,         !- Generator Operation Scheme Type
    ,                        !- Generator Demand Limit Scheme Purchased Electric Demand Limit {W}
    ,                        !- Generator Track Schedule Name Scheme Schedule Name
    ,                        !- Generator Track Meter Scheme Meter Name
    AlternatingCurrent,      !- Electrical Buss Type
    ,                        !- Inverter Name
    ,                        !- Electrical Storage Object Name
    ,                        !- Transformer Object Name
    TrackFacilityElectricDemandStoreExcessOnSite,  !- Storage Operation Scheme
    ,                        !- Storage Control Track Meter Name
    ,                        !- Storage Converter Object Name
    1;                       !- Maximum Storage State of Charge Fraction

ElectricLoadCenter:Distribution,
    D8,                      !- Name
    G8,                      !- Generator List Name
    TrackElectrical,         !- Generator Operation Scheme Type
    ,                        !- Generator Demand Limit Scheme Purchased Electric Demand Limit {W}
    ,                        !- Generator Track Schedule Name Scheme Schedule Name
    ,                        !- Generator Track Meter Scheme Meter Name
    AlternatingCurrent,      !- Electrical Buss Type
    ,                        !- Inverter Name
    ,                        !- Electrical Storage Object Name
    ,                        !- Transformer Object Name
    TrackFacilityElectricDemandStoreExcessOnSite,  !- Storage Operation Scheme
    ,                        !- Storage Control Track Meter Name
    ,                        !- Storage Converter Object Name
    1;                       !- Maximum Storage State of Charge Fraction

Output:Variable,PVSemiTransRoof1,Generator Produced DC Electricity Energy,Timestep;
Output:Variable,PVSemiTransRoof2,Generator Produced DC Electricity Energy,Timestep;
Output:Variable,PVSemiTransRoof3,Generator Produced DC Electricity Energy,Timestep;
Output:Variable,PVSemiTransRoof4,Generator Produced DC Electricity Energy,Timestep;
Output:Variable,PVSemiTransRoof5,Generator Produced DC Electricity Energy,Timestep;
Output:Variable,PVSemiTransRoof6,Generator Produced DC Electricity Energy,Timestep;
Output:Variable,PVSemiTransRoof7,Generator Produced DC Electricity Energy,Timestep;
Output:Variable,PVSemiTransRoof8,Generator Produced DC Electricity Energy,Timestep;
Output:VariableDictionary,IDF;

ExternalInterface,
    PtolemyServer;           !- Name of External Interface

ExternalInterface:Schedule,
    VentCommand,             !- Name
    Fraction,                !- Schedule Type Limits Name
    0;                       !- Initial Value

Output:Diagnostics,
    DisplayUnusedSchedules,  !- Key 1
    DisplayUnusedSchedules;  !- Key 2

Output:Variable,Environment,Site Outdoor Air Drybulb Temperature,Timestep;
Output:Variable,ZONE ONE,Zone Air Temperature ,Timestep;
Output:Variable,ZONE ONE,Zone Air Relative Humidity,Timestep;
Output:Variable,1 UH HEATCOIL,Heating Coil NaturalGas Energy,Timestep;
Output:Variable,2 UH HEATCOIL,Heating Coil NaturalGas Energy,Timestep;
Output:Variable,3 UH HEATCOIL,Heating Coil NaturalGas Energy,Timestep;
Output:Variable,4 UH HEATCOIL,Heating Coil NaturalGas Energy,Timestep;
Output:Variable,5 UH HEATCOIL,Heating Coil NaturalGas Energy,Timestep;
Output:Variable,6 UH HEATCOIL,Heating Coil NaturalGas Energy,Timestep;
Output:Variable,7 UH HEATCOIL,Heating Coil NaturalGas Energy,Timestep;
Output:Variable,1 UH FAN,Fan Electricity Energy,Timestep;
Output:Variable,2 UH FAN,Fan Electricity Energy,Timestep;
Output:Variable,3 UH FAN,Fan Electricity Energy,Timestep;
Output:Variable,4 UH FAN,Fan Electricity Energy,Timestep;
Output:Variable,5 UH FAN,Fan Electricity Energy,Timestep;
Output:Variable,6 UH FAN,Fan Electricity Energy,Timestep;
Output:Variable,7 UH FAN,Fan Electricity Energy,Timestep;
Output:Variable,1 EVAP PAD,Evaporative Cooler Electricity Energy,Timestep;
Output:Variable,2 EVAP PAD,Evaporative Cooler Electricity Energy,Timestep;
Output:Variable,3 EVAP PAD,Evaporative Cooler Electricity Energy,Timestep;
Output:Variable,4 EVAP PAD,Evaporative Cooler Electricity Energy,Timestep;
Output:Variable,5 EVAP PAD,Evaporative Cooler Electricity Energy,Timestep;
Output:Variable,6 EVAP PAD,Evaporative Cooler Electricity Energy,Timestep;
Output:Variable,7 EVAP PAD,Evaporative Cooler Electricity Energy,Timestep;
Output:Variable,8 EVAP PAD,Evaporative Cooler Electricity Energy,Timestep;
Output:Variable,1 EVAP PAD FAN,Fan Electricity Energy,Timestep;
Output:Variable,2 EVAP PAD FAN,Fan Electricity Energy,Timestep;
Output:Variable,3 EVAP PAD FAN,Fan Electricity Energy,Timestep;
Output:Variable,4 EVAP PAD FAN,Fan Electricity Energy,Timestep;
Output:Variable,5 EVAP PAD FAN,Fan Electricity Energy,Timestep;
Output:Variable,6 EVAP PAD FAN,Fan Electricity Energy,Timestep;
Output:Variable,7 EVAP PAD FAN,Fan Electricity Energy,Timestep;
Output:Variable,8 EVAP PAD FAN,Fan Electricity Energy,Timestep;
Output:Variable,1 EVAP PAD,Evaporative Cooler Water Volume,Timestep;
Output:Variable,2 EVAP PAD,Evaporative Cooler Water Volume,Timestep;
Output:Variable,3 EVAP PAD,Evaporative Cooler Water Volume,Timestep;
Output:Variable,4 EVAP PAD,Evaporative Cooler Water Volume,Timestep;
Output:Variable,5 EVAP PAD,Evaporative Cooler Water Volume,Timestep;
Output:Variable,6 EVAP PAD,Evaporative Cooler Water Volume,Timestep;
Output:Variable,7 EVAP PAD,Evaporative Cooler Water Volume,Timestep;
Output:Variable,8 EVAP PAD,Evaporative Cooler Water Volume,Timestep;
Output:Variable,ZONE ONE,Zone Ventilation Fan Electricity Energy,Timestep;
Output:Variable,GH HPS LIGHTS,Lights Electricity Energy,Timestep;

Fan:OnOff,
    7 Evap Pad Fan,          !- Name
    ALWAYSON,                !- Availability Schedule Name
    0.7,                     !- Fan Total Efficiency
    30,                      !- Pressure Rise {Pa}
    autosize,                !- Maximum Flow Rate {m3/s}
    0.8,                     !- Motor Efficiency
    1,                       !- Motor In Airstream Fraction
    7 Evap Pad Fan Inlet Node,  !- Air Inlet Node Name
    7 GH Inlet Node,         !- Air Outlet Node Name
    ,                        !- Fan Power Ratio Function of Speed Ratio Curve Name
    ,                        !- Fan Efficiency Ratio Function of Speed Ratio Curve Name
    General;                 !- End-Use Subcategory

Fan:OnOff,
    8 Evap Pad Fan,          !- Name
    ALWAYSON,                !- Availability Schedule Name
    0.7,                     !- Fan Total Efficiency
    30,                      !- Pressure Rise {Pa}
    autosize,                !- Maximum Flow Rate {m3/s}
    0.8,                     !- Motor Efficiency
    1,                       !- Motor In Airstream Fraction
    8 Evap Pad Fan Inlet Node,  !- Air Inlet Node Name
    8 GH Inlet Node,         !- Air Outlet Node Name
    ,                        !- Fan Power Ratio Function of Speed Ratio Curve Name
    ,                        !- Fan Efficiency Ratio Function of Speed Ratio Curve Name
    General;                 !- End-Use Subcategory

EvaporativeCooler:Direct:CelDekPad,
    7 Evap Pad,              !- Name
    ALWAYSON,                !- Availability Schedule Name
    autosize,                !- Direct Pad Area {m2}
    autosize,                !- Direct Pad Depth {m}
    430,                     !- Recirculating Water Pump Power Consumption {W}
    7 Evap Pad OA Inlet,     !- Air Inlet Node Name
    7 Evap Pad Fan Inlet Node;  !- Air Outlet Node Name

EvaporativeCooler:Direct:CelDekPad,
    8 Evap Pad,              !- Name
    ALWAYSON,                !- Availability Schedule Name
    autosize,                !- Direct Pad Area {m2}
    autosize,                !- Direct Pad Depth {m}
    430,                     !- Recirculating Water Pump Power Consumption {W}
    8 Evap Pad OA Inlet,     !- Air Inlet Node Name
    8 Evap Pad Fan Inlet Node;  !- Air Outlet Node Name

ZoneHVAC:EvaporativeCoolerUnit,
    7 Evap Pad,              !- Name
    ALWAYSON,                !- Availability Schedule Name
    ,                        !- Availability Manager List Name
    7 Evap Pad OA Inlet,     !- Outdoor Air Inlet Node Name
    7 GH Inlet Node,         !- Cooler Outlet Node Name
    7 Evap Pad Relief,       !- Zone Relief Air Node Name
    Fan:OnOff,               !- Supply Air Fan Object Type
    7 Evap Pad Fan,          !- Supply Air Fan Name
    autosize,                !- Design Supply Air Flow Rate {m3/s}
    DrawThrough,             !- Fan Placement
    ZoneCoolingLoadOnOffCycling,  !- Cooler Unit Control Method
    1.1,                     !- Throttling Range Temperature Difference {deltaC}
    100,                     !- Cooling Load Control Threshold Heat Transfer Rate {W}
    EvaporativeCooler:Direct:CelDekPad,  !- First Evaporative Cooler Object Type
    7 Evap Pad;              !- First Evaporative Cooler Object Name

ZoneHVAC:EvaporativeCoolerUnit,
    8 Evap Pad,              !- Name
    ALWAYSON,                !- Availability Schedule Name
    ,                        !- Availability Manager List Name
    8 Evap Pad OA Inlet,     !- Outdoor Air Inlet Node Name
    8 GH Inlet Node,         !- Cooler Outlet Node Name
    8 Evap Pad Relief,       !- Zone Relief Air Node Name
    Fan:OnOff,               !- Supply Air Fan Object Type
    8 Evap Pad Fan,          !- Supply Air Fan Name
    autosize,                !- Design Supply Air Flow Rate {m3/s}
    DrawThrough,             !- Fan Placement
    ZoneCoolingLoadOnOffCycling,  !- Cooler Unit Control Method
    1.1,                     !- Throttling Range Temperature Difference {deltaC}
    100,                     !- Cooling Load Control Threshold Heat Transfer Rate {W}
    EvaporativeCooler:Direct:CelDekPad,  !- First Evaporative Cooler Object Type
    8 Evap Pad;              !- First Evaporative Cooler Object Name

OutdoorAir:Node,
    7 Evap Pad OA Inlet,     !- Name
    ,                        !- Height Above Ground {m}
    ,                        !- Drybulb Temperature Schedule Name
    ,                        !- Wetbulb Temperature Schedule Name
    ,                        !- Wind Speed Schedule Name
    ,                        !- Wind Direction Schedule Name
    ,                        !- Wind Pressure Coefficient Curve Name
    No,                      !- Symmetric Wind Pressure Coefficient Curve
    Absolute;                !- Wind Angle Type

OutdoorAir:Node,
    8 Evap Pad OA Inlet,     !- Name
    ,                        !- Height Above Ground {m}
    ,                        !- Drybulb Temperature Schedule Name
    ,                        !- Wetbulb Temperature Schedule Name
    ,                        !- Wind Speed Schedule Name
    ,                        !- Wind Direction Schedule Name
    ,                        !- Wind Pressure Coefficient Curve Name
    No,                      !- Symmetric Wind Pressure Coefficient Curve
    Absolute;                !- Wind Angle Type

ZoneVentilation:DesignFlowRate,
    Dehumid Venting,         !- Name
    ZONE ONE,                !- Zone or ZoneList Name
    VentCommand,             !- Schedule Name
    Flow/Zone,               !- Design Flow Rate Calculation Method
    30,                      !- Design Flow Rate {m3/s}
    ,                        !- Flow Rate per Zone Floor Area {m3/s-m2}
    ,                        !- Flow Rate per Person {m3/s-person}
    15,                      !- Air Changes per Hour {1/hr}
    Exhaust,                 !- Ventilation Type
    30,                      !- Fan Pressure Rise {Pa}
    0.9,                     !- Fan Total Efficiency
    1,                       !- Constant Term Coefficient
    ,                        !- Temperature Term Coefficient
    ,                        !- Velocity Term Coefficient
    ,                        !- Velocity Squared Term Coefficient
    -100,                    !- Minimum Indoor Temperature {C}
    ,                        !- Minimum Indoor Temperature Schedule Name
    100,                     !- Maximum Indoor Temperature {C}
    ,                        !- Maximum Indoor Temperature Schedule Name
    -100,                    !- Delta Temperature {deltaC}
    ,                        !- Delta Temperature Schedule Name
    -100,                    !- Minimum Outdoor Temperature {C}
    ,                        !- Minimum Outdoor Temperature Schedule Name
    100,                     !- Maximum Outdoor Temperature {C}
    ,                        !- Maximum Outdoor Temperature Schedule Name
    40;                      !- Maximum Wind Speed {m/s}

Output:Table:SummaryReports,
    EquipmentSummary;        !- Report 1 Name

Fan:OnOff,
    2 Evap Pad Fan,          !- Name
    ALWAYSON,                !- Availability Schedule Name
    0.7,                     !- Fan Total Efficiency
    30,                      !- Pressure Rise {Pa}
    autosize,                !- Maximum Flow Rate {m3/s}
    0.8,                     !- Motor Efficiency
    1,                       !- Motor In Airstream Fraction
    2 Evap Pad Fan Inlet Node,  !- Air Inlet Node Name
    2 GH Inlet Node,         !- Air Outlet Node Name
    ,                        !- Fan Power Ratio Function of Speed Ratio Curve Name
    ,                        !- Fan Efficiency Ratio Function of Speed Ratio Curve Name
    General;                 !- End-Use Subcategory

Fan:OnOff,
    3 Evap Pad Fan,          !- Name
    ALWAYSON,                !- Availability Schedule Name
    0.7,                     !- Fan Total Efficiency
    30,                      !- Pressure Rise {Pa}
    autosize,                !- Maximum Flow Rate {m3/s}
    0.8,                     !- Motor Efficiency
    1,                       !- Motor In Airstream Fraction
    3 Evap Pad Fan Inlet Node,  !- Air Inlet Node Name
    3 GH Inlet Node,         !- Air Outlet Node Name
    ,                        !- Fan Power Ratio Function of Speed Ratio Curve Name
    ,                        !- Fan Efficiency Ratio Function of Speed Ratio Curve Name
    General;                 !- End-Use Subcategory

Fan:OnOff,
    4 Evap Pad Fan,          !- Name
    ALWAYSON,                !- Availability Schedule Name
    0.7,                     !- Fan Total Efficiency
    30,                      !- Pressure Rise {Pa}
    autosize,                !- Maximum Flow Rate {m3/s}
    0.8,                     !- Motor Efficiency
    1,                       !- Motor In Airstream Fraction
    4 Evap Pad Fan Inlet Node,  !- Air Inlet Node Name
    4 GH Inlet Node,         !- Air Outlet Node Name
    ,                        !- Fan Power Ratio Function of Speed Ratio Curve Name
    ,                        !- Fan Efficiency Ratio Function of Speed Ratio Curve Name
    General;                 !- End-Use Subcategory

Fan:OnOff,
    5 Evap Pad Fan,          !- Name
    ALWAYSON,                !- Availability Schedule Name
    0.7,                     !- Fan Total Efficiency
    30,                      !- Pressure Rise {Pa}
    autosize,                !- Maximum Flow Rate {m3/s}
    0.8,                     !- Motor Efficiency
    1,                       !- Motor In Airstream Fraction
    5 Evap Pad Fan Inlet Node,  !- Air Inlet Node Name
    5 GH Inlet Node,         !- Air Outlet Node Name
    ,                        !- Fan Power Ratio Function of Speed Ratio Curve Name
    ,                        !- Fan Efficiency Ratio Function of Speed Ratio Curve Name
    General;                 !- End-Use Subcategory

Fan:OnOff,
    6 Evap Pad Fan,          !- Name
    ALWAYSON,                !- Availability Schedule Name
    0.7,                     !- Fan Total Efficiency
    30,                      !- Pressure Rise {Pa}
    autosize,                !- Maximum Flow Rate {m3/s}
    0.8,                     !- Motor Efficiency